---- qbsp / ericw-tools v0.18.1 ----
Input file: DevilsLab.map
Output file: DevilsLab.bsp

---- LoadMapFile ----
*** WARNING 02: Multiple info_player_start entities
          948 faces
          158 brushes
           80 entities
           41 unique texnames
          120 texinfo

Opened WAD: E:/QuakeClassStuff/quake-leveldesign-starterkit-master/wads/prototype_1_2.wad
Opened WAD: E:/QuakeClassStuff/quake-leveldesign-starterkit-master/wads/id1.wad
Processing hull 0...
---- Brush_LoadEntity ----
          158 brushes
          135 planes
---- CSGFaces ----
          948 brushfaces
          969 csgfaces
          834 mergedfaces
---- SolidBSP ----
         1337 split nodes
          569 solid leafs
          769 empty leafs
            0 water leafs
            0 detail leafs
            0 detail illusionary leafs
            0 detail fence leafs
            0 illusionary visblocker leafs
         2044 leaffaces
         1931 nodefaces
---- Portalize ----
          769 vis leafs
          769 vis clusters
         1985 vis portals
---- FillOutside ----
*** WARNING 10: Reached occupant at (-752 -1152 -80), no filling performed.
Leak file written to DevilsLab.pts
---- MakeFaceEdges ----
---- GrowRegions ----
Processing hull 1...
Processing hull 2...
*** WARNING 16: Texture __TB_empty not found
---- WriteBSPFile ----
Wrote DevilsLab.bsp
          188 planes             3760
         2383 vertexes          28596
         1337 nodes             32088
          108 texinfo            4320
         1931 faces             38620
          827 clipnodes          6616
          770 leafs             21560
         2044 marksurfaces       4088
         7724 surfedges         30896
         5144 edges             20576
           41 textures         210188
              lightdata             0
              visdata               0
              entdata            5196

0.273 seconds elapsed
Peak memory usage: 9723240 (9.3M)
