---- qbsp / ericw-tools v0.18.1 ----
Input file: ne_city.map
Output file: ne_city.bsp

---- LoadMapFile ----
************ ERROR ************
Failed to open ne_city.map: No such file or directory
